/batch
/config,noeldb,1     ! force off writing results to database
*get,_wallstrt,active,,time,wall
! ANSYS input file written by Workbench version 2024 R2
! File used for geometry attach: D:\Workbench\StaticStructural\StaticStructural_files\dp0\SYS\DM\SYS.agdb
/title,StaticStructural--Static Structural (B5)
! ****** Begin Custom Load Command Snippet ******
/COM, ACT Extensions:
/COM,     LSDYNA, 2024.2
/COM,     5f463412-bd3e-484b-87e7-cbc0a665e474, wbex
/COM,/COM,     ANSYSMotion, 2024.2
/COM,     20180725-3f81-49eb-9f31-41364844c769, wbex
/COM,
! ****** End   Custom Load Command Snippet ******
*DIM,_wb_ProjectScratch_dir,string,248
_wb_ProjectScratch_dir(1) = 'D:\Workbench\StaticStructural\_ProjectScratch\ScrFCE6\'
*DIM,_wb_SolverFiles_dir,string,248
_wb_SolverFiles_dir(1) = 'D:\Workbench\StaticStructural\StaticStructural_files\dp0\SYS-1\MECH\'
*DIM,_wb_userfiles_dir,string,248
_wb_userfiles_dir(1) = 'D:\Workbench\StaticStructural\StaticStructural_files\user_files\'
/com,--- Data in consistent MKS units. See Solving Units in the help system for more information.
/units,MKS
/nopr
/wb,file,start              !  signify a WB generated input file
/prep7
! Turn off shape checking because checks already performed inside WB mesher.
! See help system for more information.
SHPP,OFF,,NOWARN
/nolist
etcon,set             ! allow ANSYS to choose best KEYOP's for 180x elements, resets any applicable keyopt to MAPDL defaults
/com,*********** Nodes for the whole assembly ***********
nblock,3,,2909
(1i9,3e20.9e3)
        1     2.000000000E-15     1.000000000E-01     0.000000000E+00
        2     0.000000000E+00     0.000000000E+00     0.000000000E+00
        3     0.000000000E+00     0.000000000E+00     6.000000000E-01
        4     2.000000000E-15     1.000000000E-01     6.000000000E-01
        5     1.000000000E-01     0.000000000E+00     0.000000000E+00
        6     1.000000000E-01     0.000000000E+00     6.000000000E-01
        7     1.000000000E-01     1.000000000E-01     0.000000000E+00
        8     1.000000000E-01     1.000000000E-01     6.000000000E-01
        9     7.500000000E-02     7.500000000E-02     0.000000000E+00
       10     5.000000000E-02     7.500000000E-02     0.000000000E+00
       11     2.500000000E-02     7.500000000E-02     0.000000000E+00
       12     7.500000000E-02     5.000000000E-02     0.000000000E+00
       13     5.000000000E-02     5.000000000E-02     0.000000000E+00
       14     2.500000000E-02     5.000000000E-02     0.000000000E+00
       15     7.500000000E-02     2.500000000E-02     0.000000000E+00
       16     5.000000000E-02     2.500000000E-02     0.000000000E+00
       17     2.500000000E-02     2.500000000E-02     0.000000000E+00
       18     4.024558464E-16     2.500000000E-02     0.000000000E+00
       19     8.049116929E-16     5.000000000E-02     0.000000000E+00
       20     1.207367539E-15     7.500000000E-02     0.000000000E+00
! ... 2626 like lines cut
/wb,elem,start            !  set before creation of elements
/com,*********** Elements for Body 1 'Solid' ***********
et,1,187
eblock,19,solid,,1412
(19i9)
        1        1        1        1        0        0        0        0       10        0        1       37      441      379      410      662     2493      660      661
     2612     2488
        1        1        1        1        0        0        0        0       10        0        2      379      441      405      410     2493     2595     2487     2488
     2612     2593
        1        1        1        1        0        0        0        0       10        0        3       38      370      441      410      668     2425      670      669
     2424     2612
        1        1        1        1        0        0        0        0       10        0        4      370      405      441      410     2423     2595     2425     2424
     2593     2612
        1        1        1        1        0        0        0        0       10        0        5       53      441      336      405      737     2339      735      736
     2595     2338
        1        1        1        1        0        0        0        0       10        0        6       48      441      336       53      712     2339      711      710
      737      735
        1        1        1        1        0        0        0        0       10        0        7      336      441      370      405     2339     2425     2337     2338
     2595     2423
        1        1        1        1        0        0        0        0       10        0        8       38      336      441      370      667     2339      670      668
     2337     2425
        1        1        1        1        0        0        0        0       10        0        9       52      379      441      405      729     2493      731      730
     2487     2595
        1        1        1        1        0        0        0        0       10        0       10       37      441       52      379      662      731      659      660
     2493      729
! ... 2805 like lines cut
! Material Id = {E050F2A9-11F0-40BE-8C4B-9F69DA52C0E5}
/wb,elem,end               !  done creating elements
/com,*********** Send User Defined Coordinate System(s) ***********
csys,0
toffst,273.15,      ! Temperature offset from absolute zero
/com,*********** Set Reference Temperature ***********
tref,22.
/wb,mat,start              !  starting to send materials
/com,*********** Send Materials ***********
Temperature = 'TEMP' ! Temperature
MP,DENS,1,7850,	! kg m^-3
MP,ALPX,1,1.2e-05,	! C^-1
MP,C,1,434,	! J kg^-1 C^-1
MP,KXX,1,60.5,	! W m^-1 C^-1
MP,RSVX,1,1.7e-07,	! kg m^3 A^-2 s^-3
MP,EX,1,200000000000,	! Pa
MP,NUXY,1,0.3,
MP,MURX,1,10000,
MP,UVID,1,4e0297ec-9125-4507-b9eb-675f8a2c78da
MP,UMID,1,59002a79-71c2-428e-906b-55d7dbee100e

/wb,mat,end                !  done sending materials
!************************* Model Summary ********************
!Solid,	Structural Steel,	matid,	1
!************************* End Model Summary ********************
! get the diagonal of the bounding box. Needed later for other things
*get,_xmin,node,,mnloc,x
*get,_ymin,node,,mnloc,y
*get,_zmin,node,,mnloc,z
*get,_xmax,node,,mxloc,x
*get,_ymax,node,,mxloc,y
*get,_zmax,node,,mxloc,z
_ASMDIAG=(_xmax-_xmin)*(_xmax-_xmin)+(_ymax-_ymin)*(_ymax-_ymin)+(_zmax-_zmin)*(_zmax-_zmin)
_ASMDIAG=SQRT(_ASMDIAG)
/wb,contact,start          !  starting to send contact
/wb,contact,end            !  done creating contacts
/golist
/wb,load,start             !  starting to send loads
/com,*********** Fixed Supports ***********
CMBLOCK,_FIXEDSU,NODE,       81
(8i10)
         3         4         6         8        30        31        32        33
        34        35        36        37        38        39        40        41
        42        43        44        45        46        47        48        49
        50       452       453       454       457       458       467       468
       475       476       477       599       600       601       602       603
       604       608       609       610       611       612       616       617
       618       619       624       625       626       627       633       634
       635       639       640       641       642       647       648       649
       655       656       657       663       664       665       666       671
       675       679       683       684       688       697       701       708
       713
cmsel,s,_FIXEDSU
d,all,all
nsel,all
/gst,on,on
fini
*get,_numnode,node,0,count
*get,_numelem,elem,0,count
*get, _MAXELEMNUM, elem, 0, NUM, MAX
*get, _MAXNODENUM, node, 0, NUM, MAX
*get, _MAXELEMTYPE, etyp, 0, NUM, MAX
*get, _MAXREALCONST, rcon, 0, NUM, MAX
/go
/wb,load,end               !  done creating loads
/com,--- Number of total nodes = %_numnode%
/com,--- Number of contact elements = 0
/com,--- Number of spring elements = 0
/com,--- Number of bearing elements = 0
/com,--- Number of solid elements = 1412
/com,--- Number of condensed parts = 0
/com,--- Number of total elements = %_numelem%
*get,_wallbsol,active,,time,wall
/com,****************************************************************************
/com,*************************    SOLUTION       ********************************
/com,****************************************************************************
/solu
antype,0                   ! static analysis
_thickRatio=  1     ! Ratio of thick parts in the model
eqsl,pcg,1e-8,,,,,,1
cntr,print,1               ! print out contact info and also make no initial contact an error
cncheck,dmp		!	Enable program controlled contact splitting for distributed memory parallel run
dmpoption,emat,no             ! Don't combine emat file for DANSYS
dmpoption,esav,no             ! Don't combine esav file for DANSYS
nldiag,cont,iter           ! print out contact info each equilibrium iteration
rescontrol,,none                 ! Do not keep any restart files
/com,****************************************************
/com,******************* SOLVE FOR LS 1 OF 1 ****************
/com,*** Set Displacements ***
CMBLOCK,_CM38UX_XP,NODE,       81
(8i10)
         1         2         5         7         9        10        11        12
        13        14        15        16        17        18        19        20
        21        22        23        24        25        26        27        28
        29       442       443       444       447       448       462       463
       464       471       472       480       481       482       483       484
       485       490       491       492       493       494       500       501
       502       503       509       510       511       512       517       518
       519       524       525       526       527       529       530       531
       536       537       538       544       545       546       547       551
       552       556       564       568       576       577       582       588
       592
cmsel,s,_CM38UX_XP
d,all,ux,4.e-002
nsel,all

/com,*** Component For All Non-Zero UX Displacements ***
cmsel,s,_CM38ux_xp
cm,_DISPNONZEROUX,NODE
nsel,all

/nopr
/gopr
nsub,1,1,1
time,1.
outres,erase
outres,all,none
outres,nsol,all,
outres,rsol,all
outres,eangl,all
outres,etmp,all
outres,veng,all
outres,strs,all,
outres,epel,all,
outres,eppl,all,
outres,cont,all,
! *********** WB SOLVE COMMAND ***********
! check interactive state
*get,ANSINTER_,active,,int
*if,ANSINTER_,ne,0,then
/eof
*endif
solve
/com *************** Write FE CONNECTORS ********* 
CEWRITE,file,ce,,INTE
/com,****************************************************
/com,*************** FINISHED SOLVE FOR LS 1 *************
*get,_wallasol,active,,time,wall
/nopr
*get,_numnode,node,0,count
*get,_numelem,elem,0,count
*get, _MAXELEMNUM, elem, 0, NUM, MAX
*get, _MAXNODENUM, node, 0, NUM, MAX,,,INTERNAL
*get, _MAXELEMTYPE, etyp, 0, NUM, MAX
*get, _MAXREALCONST, rcon, 0, NUM, MAX
*get,_NSOLTHREADS,active,0,ntfs
*get,_NSOLPROCESSES,active,0,npfs
/gopr
*get,_PCGITER,active,,solu,cgiter
/post1
xmlo,ENCODING,ISO-8859-1
xmlo,parm
/xml,parm,xml
fini
/gopr
*get,_walldone,active,,time,wall
_preptime=(_wallbsol-_wallstrt)*3600
_solvtime=(_wallasol-_wallbsol)*3600
_posttime=(_walldone-_wallasol)*3600
_totaltim=(_walldone-_wallstrt)*3600
*get,_dlbratio,active,0,solu,dlbr
*get,_combtime,active,0,solu,comb
*get,_ssmode,active,0,solu,ssmm
*get,_ndofs,active,0,solu,ndof
*get,_sol_end_time,active,0,set,time
*if,_sol_end_time,eq,1.000000,then
/fclean				!clean distributed files
*endif
/com,--- Total number of nodes = %_numnode%
/com,--- Total number of elements = %_numelem%
/com,--- Element load balance ratio = %_dlbratio%
/com,--- Time to combine distributed files = %_combtime%
/com,--- Sparse memory mode = %_ssmode%
/com,--- Number of DOF = %_ndofs%
/wb,file,end               ! done with WB generated input
